<routes>
        <vType id="veh" accel="0.8" decel="4.5" sigma="0.5" length="5" minGap="2.5" maxSpeed="16.67" guiShape="passenger"/>

        <route id="right" edges="51o 1i 2o 52i" />
        <route id="left" edges="52o 2i 1o 51i" />
        <route id="down" edges="54o 4i 3o 53i" />
        <route id="up" edges="53o 3i 4o 54i" />
    <vehicle id="up_0" type="veh" route="up" depart="0" color="1,0,0"/>
    <vehicle id="right_1" type="veh" route="right" depart="1" />
    <vehicle id="up_2" type="veh" route="up" depart="1" color="1,0,0"/>
    <vehicle id="right_3" type="veh" route="right" depart="2" />
    <vehicle id="right_4" type="veh" route="right" depart="3" />
    <vehicle id="up_5" type="veh" route="up" depart="3" color="1,0,0"/>
    <vehicle id="right_6" type="veh" route="right" depart="5" />
    <vehicle id="right_7" type="veh" route="right" depart="6" />
    <vehicle id="left_8" type="veh" route="left" depart="6" />
    <vehicle id="right_9" type="veh" route="right" depart="8" />
    <vehicle id="up_10" type="veh" route="up" depart="8" color="1,0,0"/>
    <vehicle id="right_11" type="veh" route="right" depart="10" />
    <vehicle id="up_12" type="veh" route="up" depart="10" color="1,0,0"/>
    <vehicle id="right_13" type="veh" route="right" depart="11" />
    <vehicle id="down_14" type="veh" route="down" depart="11" color="1,0,0"/>
    <vehicle id="right_15" type="veh" route="right" depart="12" />
    <vehicle id="right_16" type="veh" route="right" depart="13" />
    <vehicle id="left_17" type="veh" route="left" depart="13" />
    <vehicle id="right_18" type="veh" route="right" depart="14" />
    <vehicle id="up_19" type="veh" route="up" depart="16" color="1,0,0"/>
    <vehicle id="left_20" type="veh" route="left" depart="17" />
    <vehicle id="down_21" type="veh" route="down" depart="17" color="1,0,0"/>
    <vehicle id="up_22" type="veh" route="up" depart="17" color="1,0,0"/>
    <vehicle id="up_23" type="veh" route="up" depart="18" color="1,0,0"/>
    <vehicle id="up_24" type="veh" route="up" depart="20" color="1,0,0"/>
    <vehicle id="left_25" type="veh" route="left" depart="21" />
    <vehicle id="right_26" type="veh" route="right" depart="23" />
    <vehicle id="left_27" type="veh" route="left" depart="24" />
    <vehicle id="down_28" type="veh" route="down" depart="25" color="1,0,0"/>
    <vehicle id="right_29" type="veh" route="right" depart="26" />
    <vehicle id="left_30" type="veh" route="left" depart="26" />
    <vehicle id="up_31" type="veh" route="up" depart="26" color="1,0,0"/>
    <vehicle id="left_32" type="veh" route="left" depart="27" />
    <vehicle id="down_33" type="veh" route="down" depart="27" color="1,0,0"/>
    <vehicle id="right_34" type="veh" route="right" depart="28" />
    <vehicle id="left_35" type="veh" route="left" depart="29" />
    <vehicle id="right_36" type="veh" route="right" depart="31" />
    <vehicle id="left_37" type="veh" route="left" depart="31" />
    <vehicle id="up_38" type="veh" route="up" depart="31" color="1,0,0"/>
    <vehicle id="right_39" type="veh" route="right" depart="32" />
    <vehicle id="left_40" type="veh" route="left" depart="32" />
    <vehicle id="right_41" type="veh" route="right" depart="33" />
    <vehicle id="down_42" type="veh" route="down" depart="33" color="1,0,0"/>
    <vehicle id="up_43" type="veh" route="up" depart="33" color="1,0,0"/>
    <vehicle id="right_44" type="veh" route="right" depart="34" />
    <vehicle id="down_45" type="veh" route="down" depart="34" color="1,0,0"/>
    <vehicle id="up_46" type="veh" route="up" depart="34" color="1,0,0"/>
    <vehicle id="right_47" type="veh" route="right" depart="35" />
    <vehicle id="left_48" type="veh" route="left" depart="35" />
    <vehicle id="down_49" type="veh" route="down" depart="35" color="1,0,0"/>
    <vehicle id="right_50" type="veh" route="right" depart="36" />
    <vehicle id="left_51" type="veh" route="left" depart="37" />
    <vehicle id="right_52" type="veh" route="right" depart="38" />
    <vehicle id="up_53" type="veh" route="up" depart="38" color="1,0,0"/>
    <vehicle id="right_54" type="veh" route="right" depart="39" />
    <vehicle id="up_55" type="veh" route="up" depart="39" color="1,0,0"/>
    <vehicle id="right_56" type="veh" route="right" depart="40" />
    <vehicle id="right_57" type="veh" route="right" depart="41" />
    <vehicle id="up_58" type="veh" route="up" depart="41" color="1,0,0"/>
    <vehicle id="left_59" type="veh" route="left" depart="42" />
    <vehicle id="up_60" type="veh" route="up" depart="42" color="1,0,0"/>
    <vehicle id="right_61" type="veh" route="right" depart="43" />
    <vehicle id="left_62" type="veh" route="left" depart="43" />
    <vehicle id="down_63" type="veh" route="down" depart="43" color="1,0,0"/>
    <vehicle id="right_64" type="veh" route="right" depart="44" />
    <vehicle id="left_65" type="veh" route="left" depart="44" />
    <vehicle id="up_66" type="veh" route="up" depart="45" color="1,0,0"/>
    <vehicle id="right_67" type="veh" route="right" depart="46" />
    <vehicle id="down_68" type="veh" route="down" depart="46" color="1,0,0"/>
    <vehicle id="up_69" type="veh" route="up" depart="46" color="1,0,0"/>
    <vehicle id="right_70" type="veh" route="right" depart="47" />
    <vehicle id="left_71" type="veh" route="left" depart="47" />
    <vehicle id="up_72" type="veh" route="up" depart="47" color="1,0,0"/>
    <vehicle id="up_73" type="veh" route="up" depart="48" color="1,0,0"/>
    <vehicle id="up_74" type="veh" route="up" depart="49" color="1,0,0"/>
    <vehicle id="right_75" type="veh" route="right" depart="50" />
    <vehicle id="left_76" type="veh" route="left" depart="50" />
    <vehicle id="down_77" type="veh" route="down" depart="50" color="1,0,0"/>
    <vehicle id="right_78" type="veh" route="right" depart="51" />
    <vehicle id="right_79" type="veh" route="right" depart="52" />
    <vehicle id="left_80" type="veh" route="left" depart="52" />
    <vehicle id="down_81" type="veh" route="down" depart="53" color="1,0,0"/>
    <vehicle id="left_82" type="veh" route="left" depart="54" />
    <vehicle id="right_83" type="veh" route="right" depart="55" />
    <vehicle id="down_84" type="veh" route="down" depart="55" color="1,0,0"/>
    <vehicle id="up_85" type="veh" route="up" depart="55" color="1,0,0"/>
    <vehicle id="left_86" type="veh" route="left" depart="56" />
    <vehicle id="right_87" type="veh" route="right" depart="57" />
    <vehicle id="left_88" type="veh" route="left" depart="57" />
    <vehicle id="right_89" type="veh" route="right" depart="58" />
    <vehicle id="down_90" type="veh" route="down" depart="58" color="1,0,0"/>
    <vehicle id="right_91" type="veh" route="right" depart="59" />
    <vehicle id="left_92" type="veh" route="left" depart="59" />
    <vehicle id="down_93" type="veh" route="down" depart="59" color="1,0,0"/>
    <vehicle id="down_94" type="veh" route="down" depart="60" color="1,0,0"/>
    <vehicle id="left_95" type="veh" route="left" depart="61" />
    <vehicle id="up_96" type="veh" route="up" depart="61" color="1,0,0"/>
    <vehicle id="right_97" type="veh" route="right" depart="62" />
    <vehicle id="left_98" type="veh" route="left" depart="62" />
    <vehicle id="up_99" type="veh" route="up" depart="63" color="1,0,0"/>
    <vehicle id="right_100" type="veh" route="right" depart="66" />
    <vehicle id="down_101" type="veh" route="down" depart="66" color="1,0,0"/>
    <vehicle id="up_102" type="veh" route="up" depart="66" color="1,0,0"/>
    <vehicle id="right_103" type="veh" route="right" depart="67" />
    <vehicle id="up_104" type="veh" route="up" depart="67" color="1,0,0"/>
    <vehicle id="left_105" type="veh" route="left" depart="68" />
    <vehicle id="down_106" type="veh" route="down" depart="68" color="1,0,0"/>
    <vehicle id="right_107" type="veh" route="right" depart="69" />
    <vehicle id="up_108" type="veh" route="up" depart="69" color="1,0,0"/>
    <vehicle id="right_109" type="veh" route="right" depart="70" />
    <vehicle id="left_110" type="veh" route="left" depart="70" />
    <vehicle id="down_111" type="veh" route="down" depart="70" color="1,0,0"/>
    <vehicle id="up_112" type="veh" route="up" depart="70" color="1,0,0"/>
    <vehicle id="right_113" type="veh" route="right" depart="71" />
    <vehicle id="left_114" type="veh" route="left" depart="71" />
    <vehicle id="up_115" type="veh" route="up" depart="71" color="1,0,0"/>
    <vehicle id="right_116" type="veh" route="right" depart="72" />
    <vehicle id="left_117" type="veh" route="left" depart="72" />
    <vehicle id="down_118" type="veh" route="down" depart="73" color="1,0,0"/>
    <vehicle id="down_119" type="veh" route="down" depart="74" color="1,0,0"/>
    <vehicle id="up_120" type="veh" route="up" depart="75" color="1,0,0"/>
    <vehicle id="down_121" type="veh" route="down" depart="76" color="1,0,0"/>
    <vehicle id="up_122" type="veh" route="up" depart="76" color="1,0,0"/>
    <vehicle id="left_123" type="veh" route="left" depart="77" />
    <vehicle id="down_124" type="veh" route="down" depart="77" color="1,0,0"/>
    <vehicle id="up_125" type="veh" route="up" depart="77" color="1,0,0"/>
    <vehicle id="right_126" type="veh" route="right" depart="78" />
    <vehicle id="right_127" type="veh" route="right" depart="80" />
    <vehicle id="up_128" type="veh" route="up" depart="80" color="1,0,0"/>
    <vehicle id="right_129" type="veh" route="right" depart="81" />
    <vehicle id="right_130" type="veh" route="right" depart="82" />
    <vehicle id="down_131" type="veh" route="down" depart="82" color="1,0,0"/>
    <vehicle id="up_132" type="veh" route="up" depart="82" color="1,0,0"/>
    <vehicle id="right_133" type="veh" route="right" depart="83" />
    <vehicle id="left_134" type="veh" route="left" depart="83" />
    <vehicle id="up_135" type="veh" route="up" depart="83" color="1,0,0"/>
    <vehicle id="right_136" type="veh" route="right" depart="84" />
    <vehicle id="left_137" type="veh" route="left" depart="84" />
    <vehicle id="right_138" type="veh" route="right" depart="85" />
    <vehicle id="up_139" type="veh" route="up" depart="85" color="1,0,0"/>
    <vehicle id="right_140" type="veh" route="right" depart="86" />
    <vehicle id="left_141" type="veh" route="left" depart="87" />
    <vehicle id="left_142" type="veh" route="left" depart="88" />
    <vehicle id="up_143" type="veh" route="up" depart="88" color="1,0,0"/>
    <vehicle id="right_144" type="veh" route="right" depart="89" />
    <vehicle id="right_145" type="veh" route="right" depart="90" />
    <vehicle id="left_146" type="veh" route="left" depart="90" />
    <vehicle id="down_147" type="veh" route="down" depart="90" color="1,0,0"/>
    <vehicle id="right_148" type="veh" route="right" depart="92" />
    <vehicle id="left_149" type="veh" route="left" depart="92" />
    <vehicle id="up_150" type="veh" route="up" depart="92" color="1,0,0"/>
    <vehicle id="right_151" type="veh" route="right" depart="93" />
    <vehicle id="left_152" type="veh" route="left" depart="93" />
    <vehicle id="down_153" type="veh" route="down" depart="93" color="1,0,0"/>
    <vehicle id="right_154" type="veh" route="right" depart="94" />
    <vehicle id="left_155" type="veh" route="left" depart="94" />
    <vehicle id="down_156" type="veh" route="down" depart="94" color="1,0,0"/>
    <vehicle id="up_157" type="veh" route="up" depart="97" color="1,0,0"/>
    <vehicle id="right_158" type="veh" route="right" depart="98" />
    <vehicle id="down_159" type="veh" route="down" depart="100" color="1,0,0"/>
    <vehicle id="up_160" type="veh" route="up" depart="100" color="1,0,0"/>
    <vehicle id="right_161" type="veh" route="right" depart="101" />
    <vehicle id="left_162" type="veh" route="left" depart="101" />
    <vehicle id="down_163" type="veh" route="down" depart="101" color="1,0,0"/>
    <vehicle id="left_164" type="veh" route="left" depart="102" />
    <vehicle id="right_165" type="veh" route="right" depart="103" />
    <vehicle id="down_166" type="veh" route="down" depart="103" color="1,0,0"/>
    <vehicle id="up_167" type="veh" route="up" depart="103" color="1,0,0"/>
    <vehicle id="left_168" type="veh" route="left" depart="104" />
    <vehicle id="down_169" type="veh" route="down" depart="104" color="1,0,0"/>
    <vehicle id="up_170" type="veh" route="up" depart="104" color="1,0,0"/>
    <vehicle id="right_171" type="veh" route="right" depart="105" />
    <vehicle id="right_172" type="veh" route="right" depart="106" />
    <vehicle id="right_173" type="veh" route="right" depart="107" />
    <vehicle id="left_174" type="veh" route="left" depart="107" />
    <vehicle id="up_175" type="veh" route="up" depart="107" color="1,0,0"/>
    <vehicle id="right_176" type="veh" route="right" depart="108" />
    <vehicle id="up_177" type="veh" route="up" depart="108" color="1,0,0"/>
    <vehicle id="left_178" type="veh" route="left" depart="109" />
    <vehicle id="right_179" type="veh" route="right" depart="110" />
    <vehicle id="left_180" type="veh" route="left" depart="111" />
    <vehicle id="down_181" type="veh" route="down" depart="111" color="1,0,0"/>
    <vehicle id="down_182" type="veh" route="down" depart="112" color="1,0,0"/>
    <vehicle id="up_183" type="veh" route="up" depart="114" color="1,0,0"/>
    <vehicle id="left_184" type="veh" route="left" depart="116" />
    <vehicle id="down_185" type="veh" route="down" depart="116" color="1,0,0"/>
    <vehicle id="right_186" type="veh" route="right" depart="117" />
    <vehicle id="left_187" type="veh" route="left" depart="118" />
    <vehicle id="down_188" type="veh" route="down" depart="118" color="1,0,0"/>
    <vehicle id="up_189" type="veh" route="up" depart="119" color="1,0,0"/>
    <vehicle id="right_190" type="veh" route="right" depart="120" />
    <vehicle id="left_191" type="veh" route="left" depart="120" />
    <vehicle id="up_192" type="veh" route="up" depart="121" color="1,0,0"/>
    <vehicle id="down_193" type="veh" route="down" depart="122" color="1,0,0"/>
    <vehicle id="left_194" type="veh" route="left" depart="123" />
    <vehicle id="left_195" type="veh" route="left" depart="124" />
    <vehicle id="down_196" type="veh" route="down" depart="124" color="1,0,0"/>
    <vehicle id="up_197" type="veh" route="up" depart="124" color="1,0,0"/>
    <vehicle id="right_198" type="veh" route="right" depart="125" />
    <vehicle id="left_199" type="veh" route="left" depart="125" />
    <vehicle id="down_200" type="veh" route="down" depart="125" color="1,0,0"/>
    <vehicle id="left_201" type="veh" route="left" depart="126" />
    <vehicle id="up_202" type="veh" route="up" depart="126" color="1,0,0"/>
    <vehicle id="right_203" type="veh" route="right" depart="127" />
    <vehicle id="up_204" type="veh" route="up" depart="127" color="1,0,0"/>
    <vehicle id="right_205" type="veh" route="right" depart="128" />
    <vehicle id="down_206" type="veh" route="down" depart="128" color="1,0,0"/>
    <vehicle id="left_207" type="veh" route="left" depart="129" />
    <vehicle id="down_208" type="veh" route="down" depart="129" color="1,0,0"/>
    <vehicle id="up_209" type="veh" route="up" depart="129" color="1,0,0"/>
    <vehicle id="left_210" type="veh" route="left" depart="130" />
    <vehicle id="up_211" type="veh" route="up" depart="130" color="1,0,0"/>
    <vehicle id="right_212" type="veh" route="right" depart="131" />
    <vehicle id="left_213" type="veh" route="left" depart="131" />
    <vehicle id="left_214" type="veh" route="left" depart="132" />
    <vehicle id="up_215" type="veh" route="up" depart="132" color="1,0,0"/>
    <vehicle id="left_216" type="veh" route="left" depart="133" />
    <vehicle id="left_217" type="veh" route="left" depart="134" />
    <vehicle id="down_218" type="veh" route="down" depart="134" color="1,0,0"/>
    <vehicle id="right_219" type="veh" route="right" depart="135" />
    <vehicle id="down_220" type="veh" route="down" depart="135" color="1,0,0"/>
    <vehicle id="up_221" type="veh" route="up" depart="135" color="1,0,0"/>
    <vehicle id="right_222" type="veh" route="right" depart="136" />
    <vehicle id="left_223" type="veh" route="left" depart="136" />
    <vehicle id="down_224" type="veh" route="down" depart="136" color="1,0,0"/>
    <vehicle id="up_225" type="veh" route="up" depart="136" color="1,0,0"/>
    <vehicle id="down_226" type="veh" route="down" depart="137" color="1,0,0"/>
    <vehicle id="up_227" type="veh" route="up" depart="137" color="1,0,0"/>
    <vehicle id="left_228" type="veh" route="left" depart="138" />
    <vehicle id="up_229" type="veh" route="up" depart="138" color="1,0,0"/>
    <vehicle id="left_230" type="veh" route="left" depart="139" />
    <vehicle id="up_231" type="veh" route="up" depart="139" color="1,0,0"/>
    <vehicle id="left_232" type="veh" route="left" depart="140" />
    <vehicle id="down_233" type="veh" route="down" depart="140" color="1,0,0"/>
    <vehicle id="up_234" type="veh" route="up" depart="140" color="1,0,0"/>
    <vehicle id="right_235" type="veh" route="right" depart="141" />
    <vehicle id="up_236" type="veh" route="up" depart="141" color="1,0,0"/>
    <vehicle id="right_237" type="veh" route="right" depart="143" />
    <vehicle id="up_238" type="veh" route="up" depart="143" color="1,0,0"/>
    <vehicle id="right_239" type="veh" route="right" depart="144" />
    <vehicle id="down_240" type="veh" route="down" depart="144" color="1,0,0"/>
    <vehicle id="down_241" type="veh" route="down" depart="145" color="1,0,0"/>
    <vehicle id="up_242" type="veh" route="up" depart="145" color="1,0,0"/>
    <vehicle id="down_243" type="veh" route="down" depart="146" color="1,0,0"/>
    <vehicle id="up_244" type="veh" route="up" depart="146" color="1,0,0"/>
    <vehicle id="up_245" type="veh" route="up" depart="147" color="1,0,0"/>
    <vehicle id="right_246" type="veh" route="right" depart="149" />
    <vehicle id="down_247" type="veh" route="down" depart="149" color="1,0,0"/>
    <vehicle id="right_248" type="veh" route="right" depart="150" />
    <vehicle id="down_249" type="veh" route="down" depart="150" color="1,0,0"/>
    <vehicle id="up_250" type="veh" route="up" depart="150" color="1,0,0"/>
    <vehicle id="right_251" type="veh" route="right" depart="151" />
    <vehicle id="up_252" type="veh" route="up" depart="151" color="1,0,0"/>
    <vehicle id="right_253" type="veh" route="right" depart="152" />
    <vehicle id="left_254" type="veh" route="left" depart="152" />
    <vehicle id="left_255" type="veh" route="left" depart="153" />
    <vehicle id="up_256" type="veh" route="up" depart="153" color="1,0,0"/>
    <vehicle id="right_257" type="veh" route="right" depart="154" />
    <vehicle id="down_258" type="veh" route="down" depart="154" color="1,0,0"/>
    <vehicle id="right_259" type="veh" route="right" depart="155" />
    <vehicle id="down_260" type="veh" route="down" depart="155" color="1,0,0"/>
    <vehicle id="up_261" type="veh" route="up" depart="156" color="1,0,0"/>
    <vehicle id="right_262" type="veh" route="right" depart="158" />
    <vehicle id="up_263" type="veh" route="up" depart="158" color="1,0,0"/>
    <vehicle id="up_264" type="veh" route="up" depart="159" color="1,0,0"/>
    <vehicle id="up_265" type="veh" route="up" depart="160" color="1,0,0"/>
    <vehicle id="right_266" type="veh" route="right" depart="161" />
    <vehicle id="down_267" type="veh" route="down" depart="161" color="1,0,0"/>
    <vehicle id="right_268" type="veh" route="right" depart="162" />
    <vehicle id="left_269" type="veh" route="left" depart="162" />
    <vehicle id="up_270" type="veh" route="up" depart="162" color="1,0,0"/>
    <vehicle id="left_271" type="veh" route="left" depart="163" />
    <vehicle id="right_272" type="veh" route="right" depart="164" />
    <vehicle id="down_273" type="veh" route="down" depart="164" color="1,0,0"/>
    <vehicle id="up_274" type="veh" route="up" depart="165" color="1,0,0"/>
    <vehicle id="right_275" type="veh" route="right" depart="166" />
    <vehicle id="down_276" type="veh" route="down" depart="167" color="1,0,0"/>
    <vehicle id="right_277" type="veh" route="right" depart="168" />
    <vehicle id="left_278" type="veh" route="left" depart="168" />
    <vehicle id="up_279" type="veh" route="up" depart="168" color="1,0,0"/>
    <vehicle id="right_280" type="veh" route="right" depart="169" />
    <vehicle id="up_281" type="veh" route="up" depart="169" color="1,0,0"/>
    <vehicle id="right_282" type="veh" route="right" depart="170" />
    <vehicle id="up_283" type="veh" route="up" depart="170" color="1,0,0"/>
    <vehicle id="up_284" type="veh" route="up" depart="171" color="1,0,0"/>
    <vehicle id="down_285" type="veh" route="down" depart="172" color="1,0,0"/>
    <vehicle id="up_286" type="veh" route="up" depart="172" color="1,0,0"/>
    <vehicle id="down_287" type="veh" route="down" depart="173" color="1,0,0"/>
    <vehicle id="up_288" type="veh" route="up" depart="173" color="1,0,0"/>
    <vehicle id="right_289" type="veh" route="right" depart="174" />
    <vehicle id="left_290" type="veh" route="left" depart="174" />
    <vehicle id="down_291" type="veh" route="down" depart="174" color="1,0,0"/>
    <vehicle id="up_292" type="veh" route="up" depart="174" color="1,0,0"/>
    <vehicle id="left_293" type="veh" route="left" depart="175" />
    <vehicle id="down_294" type="veh" route="down" depart="176" color="1,0,0"/>
    <vehicle id="right_295" type="veh" route="right" depart="177" />
    <vehicle id="up_296" type="veh" route="up" depart="179" color="1,0,0"/>
    <vehicle id="right_297" type="veh" route="right" depart="180" />
    <vehicle id="left_298" type="veh" route="left" depart="180" />
    <vehicle id="down_299" type="veh" route="down" depart="180" color="1,0,0"/>
    <vehicle id="up_300" type="veh" route="up" depart="180" color="1,0,0"/>
    <vehicle id="left_301" type="veh" route="left" depart="181" />
    <vehicle id="right_302" type="veh" route="right" depart="183" />
    <vehicle id="left_303" type="veh" route="left" depart="183" />
    <vehicle id="right_304" type="veh" route="right" depart="184" />
    <vehicle id="down_305" type="veh" route="down" depart="184" color="1,0,0"/>
    <vehicle id="up_306" type="veh" route="up" depart="184" color="1,0,0"/>
    <vehicle id="right_307" type="veh" route="right" depart="185" />
    <vehicle id="down_308" type="veh" route="down" depart="185" color="1,0,0"/>
    <vehicle id="right_309" type="veh" route="right" depart="186" />
    <vehicle id="left_310" type="veh" route="left" depart="186" />
    <vehicle id="right_311" type="veh" route="right" depart="187" />
    <vehicle id="down_312" type="veh" route="down" depart="187" color="1,0,0"/>
    <vehicle id="up_313" type="veh" route="up" depart="187" color="1,0,0"/>
    <vehicle id="left_314" type="veh" route="left" depart="188" />
    <vehicle id="up_315" type="veh" route="up" depart="188" color="1,0,0"/>
    <vehicle id="right_316" type="veh" route="right" depart="189" />
    <vehicle id="down_317" type="veh" route="down" depart="189" color="1,0,0"/>
    <vehicle id="down_318" type="veh" route="down" depart="190" color="1,0,0"/>
    <vehicle id="up_319" type="veh" route="up" depart="190" color="1,0,0"/>
    <vehicle id="right_320" type="veh" route="right" depart="191" />
    <vehicle id="right_321" type="veh" route="right" depart="192" />
    <vehicle id="left_322" type="veh" route="left" depart="192" />
    <vehicle id="left_323" type="veh" route="left" depart="193" />
    <vehicle id="down_324" type="veh" route="down" depart="193" color="1,0,0"/>
    <vehicle id="right_325" type="veh" route="right" depart="194" />
    <vehicle id="up_326" type="veh" route="up" depart="194" color="1,0,0"/>
    <vehicle id="right_327" type="veh" route="right" depart="195" />
    <vehicle id="down_328" type="veh" route="down" depart="195" color="1,0,0"/>
    <vehicle id="right_329" type="veh" route="right" depart="196" />
    <vehicle id="left_330" type="veh" route="left" depart="196" />
    <vehicle id="left_331" type="veh" route="left" depart="197" />
    <vehicle id="down_332" type="veh" route="down" depart="197" color="1,0,0"/>
    <vehicle id="up_333" type="veh" route="up" depart="197" color="1,0,0"/>
    <vehicle id="left_334" type="veh" route="left" depart="198" />
    <vehicle id="up_335" type="veh" route="up" depart="198" color="1,0,0"/>
    <vehicle id="right_336" type="veh" route="right" depart="199" />
    <vehicle id="right_337" type="veh" route="right" depart="200" />
    <vehicle id="down_338" type="veh" route="down" depart="200" color="1,0,0"/>
    <vehicle id="right_339" type="veh" route="right" depart="201" />
    <vehicle id="down_340" type="veh" route="down" depart="202" color="1,0,0"/>
    <vehicle id="right_341" type="veh" route="right" depart="203" />
    <vehicle id="up_342" type="veh" route="up" depart="203" color="1,0,0"/>
    <vehicle id="left_343" type="veh" route="left" depart="204" />
    <vehicle id="down_344" type="veh" route="down" depart="204" color="1,0,0"/>
    <vehicle id="left_345" type="veh" route="left" depart="205" />
    <vehicle id="up_346" type="veh" route="up" depart="205" color="1,0,0"/>
    <vehicle id="right_347" type="veh" route="right" depart="206" />
    <vehicle id="right_348" type="veh" route="right" depart="207" />
    <vehicle id="down_349" type="veh" route="down" depart="208" color="1,0,0"/>
    <vehicle id="down_350" type="veh" route="down" depart="209" color="1,0,0"/>
    <vehicle id="down_351" type="veh" route="down" depart="210" color="1,0,0"/>
    <vehicle id="right_352" type="veh" route="right" depart="211" />
    <vehicle id="up_353" type="veh" route="up" depart="211" color="1,0,0"/>
    <vehicle id="right_354" type="veh" route="right" depart="212" />
    <vehicle id="down_355" type="veh" route="down" depart="213" color="1,0,0"/>
    <vehicle id="right_356" type="veh" route="right" depart="214" />
    <vehicle id="down_357" type="veh" route="down" depart="215" color="1,0,0"/>
    <vehicle id="up_358" type="veh" route="up" depart="215" color="1,0,0"/>
    <vehicle id="down_359" type="veh" route="down" depart="216" color="1,0,0"/>
    <vehicle id="up_360" type="veh" route="up" depart="216" color="1,0,0"/>
    <vehicle id="down_361" type="veh" route="down" depart="217" color="1,0,0"/>
    <vehicle id="right_362" type="veh" route="right" depart="218" />
    <vehicle id="right_363" type="veh" route="right" depart="219" />
    <vehicle id="left_364" type="veh" route="left" depart="219" />
    <vehicle id="up_365" type="veh" route="up" depart="219" color="1,0,0"/>
    <vehicle id="right_366" type="veh" route="right" depart="220" />
    <vehicle id="left_367" type="veh" route="left" depart="220" />
    <vehicle id="up_368" type="veh" route="up" depart="220" color="1,0,0"/>
    <vehicle id="right_369" type="veh" route="right" depart="221" />
    <vehicle id="right_370" type="veh" route="right" depart="222" />
    <vehicle id="up_371" type="veh" route="up" depart="222" color="1,0,0"/>
    <vehicle id="right_372" type="veh" route="right" depart="223" />
    <vehicle id="up_373" type="veh" route="up" depart="223" color="1,0,0"/>
    <vehicle id="right_374" type="veh" route="right" depart="224" />
    <vehicle id="left_375" type="veh" route="left" depart="224" />
    <vehicle id="down_376" type="veh" route="down" depart="225" color="1,0,0"/>
    <vehicle id="right_377" type="veh" route="right" depart="226" />
    <vehicle id="down_378" type="veh" route="down" depart="226" color="1,0,0"/>
    <vehicle id="up_379" type="veh" route="up" depart="226" color="1,0,0"/>
    <vehicle id="up_380" type="veh" route="up" depart="227" color="1,0,0"/>
    <vehicle id="right_381" type="veh" route="right" depart="228" />
    <vehicle id="up_382" type="veh" route="up" depart="228" color="1,0,0"/>
    <vehicle id="right_383" type="veh" route="right" depart="229" />
    <vehicle id="down_384" type="veh" route="down" depart="229" color="1,0,0"/>
    <vehicle id="left_385" type="veh" route="left" depart="230" />
    <vehicle id="down_386" type="veh" route="down" depart="230" color="1,0,0"/>
    <vehicle id="up_387" type="veh" route="up" depart="231" color="1,0,0"/>
    <vehicle id="left_388" type="veh" route="left" depart="232" />
    <vehicle id="right_389" type="veh" route="right" depart="233" />
    <vehicle id="down_390" type="veh" route="down" depart="233" color="1,0,0"/>
    <vehicle id="up_391" type="veh" route="up" depart="233" color="1,0,0"/>
    <vehicle id="right_392" type="veh" route="right" depart="234" />
    <vehicle id="left_393" type="veh" route="left" depart="234" />
    <vehicle id="down_394" type="veh" route="down" depart="234" color="1,0,0"/>
    <vehicle id="up_395" type="veh" route="up" depart="234" color="1,0,0"/>
    <vehicle id="down_396" type="veh" route="down" depart="235" color="1,0,0"/>
    <vehicle id="right_397" type="veh" route="right" depart="236" />
    <vehicle id="left_398" type="veh" route="left" depart="236" />
    <vehicle id="up_399" type="veh" route="up" depart="237" color="1,0,0"/>
    <vehicle id="up_400" type="veh" route="up" depart="238" color="1,0,0"/>
    <vehicle id="right_401" type="veh" route="right" depart="239" />
    <vehicle id="left_402" type="veh" route="left" depart="239" />
    <vehicle id="up_403" type="veh" route="up" depart="239" color="1,0,0"/>
    <vehicle id="up_404" type="veh" route="up" depart="240" color="1,0,0"/>
    <vehicle id="left_405" type="veh" route="left" depart="241" />
    <vehicle id="up_406" type="veh" route="up" depart="241" color="1,0,0"/>
    <vehicle id="down_407" type="veh" route="down" depart="242" color="1,0,0"/>
    <vehicle id="right_408" type="veh" route="right" depart="243" />
    <vehicle id="down_409" type="veh" route="down" depart="244" color="1,0,0"/>
    <vehicle id="left_410" type="veh" route="left" depart="245" />