<?xml version="1.0" encoding="UTF-8"?>

<!-- generated on 04/20/18 11:16:24 by SUMO netconvert Version 0.32.0
<?xml version="1.0" encoding="UTF-8"?>

<configuration xmlns:xsi="http://www.w3.org/2001/XMLSchema-instance" xsi:noNamespaceSchemaLocation="http://sumo.dlr.de/xsd/netconvertConfiguration.xsd">

    <input>
        <node-files value="data\cross.nod.xml"/>
        <edge-files value="data\cross.edg.xml"/>
    </input>

    <output>
        <output-file value="data\cross.net.xml"/>
    </output>

</configuration>
-->

<net version="0.27" xmlns:xsi="http://www.w3.org/2001/XMLSchema-instance" xsi:noNamespaceSchemaLocation="http://sumo.dlr.de/xsd/net_file.xsd">

    <location netOffset="510.00,510.00" convBoundary="0.00,0.00,1020.00,1020.00" origBoundary="-510.00,-510.00,510.00,510.00" projParameter="!"/>

    <edge id=":0_0" function="internal">
        <lane id=":0_0_0" index="0" speed="19.44" length="5.00" shape="505.05,518.05 504.86,516.69 504.28,515.73 503.31,515.14 501.95,514.95"/>
    </edge>
    <edge id=":0_1" function="internal">
        <lane id=":0_1_0" index="0" speed="19.44" length="16.10" shape="505.05,518.05 505.05,501.95"/>
        <lane id=":0_1_1" index="1" speed="19.44" length="16.10" shape="508.35,518.05 508.35,501.95"/>
    </edge>
    <edge id=":0_3" function="internal">
        <lane id=":0_3_0" index="0" speed="19.44" length="6.41" shape="508.35,518.05 508.96,513.81 510.05,511.98"/>
    </edge>
    <edge id=":0_4" function="internal">
        <lane id=":0_4_0" index="0" speed="19.44" length="2.41" shape="508.35,518.05 509.18,516.81 510.00,516.40"/>
    </edge>
    <edge id=":0_20" function="internal">
        <lane id=":0_20_0" index="0" speed="19.44" length="9.23" shape="510.05,511.98 510.78,510.77 513.81,508.96 518.05,508.35"/>
    </edge>
    <edge id=":0_21" function="internal">
        <lane id=":0_21_0" index="0" speed="19.44" length="2.41" shape="510.00,516.40 510.82,516.81 511.65,518.05"/>
    </edge>
    <edge id=":0_5" function="internal">
        <lane id=":0_5_0" index="0" speed="19.44" length="5.00" shape="518.05,514.95 516.69,515.14 515.73,515.73 515.14,516.69 514.95,518.05"/>
    </edge>
    <edge id=":0_6" function="internal">
        <lane id=":0_6_0" index="0" speed="19.44" length="16.10" shape="518.05,514.95 501.95,514.95"/>
        <lane id=":0_6_1" index="1" speed="19.44" length="16.10" shape="518.05,511.65 501.95,511.65"/>
    </edge>
    <edge id=":0_8" function="internal">
        <lane id=":0_8_0" index="0" speed="19.44" length="6.41" shape="518.05,511.65 513.81,511.04 511.98,509.95"/>
    </edge>
    <edge id=":0_9" function="internal">
        <lane id=":0_9_0" index="0" speed="19.44" length="2.41" shape="518.05,511.65 516.81,510.82 516.40,510.00"/>
    </edge>
    <edge id=":0_22" function="internal">
        <lane id=":0_22_0" index="0" speed="19.44" length="9.23" shape="511.98,509.95 510.77,509.22 508.96,506.19 508.35,501.95"/>
    </edge>
    <edge id=":0_23" function="internal">
        <lane id=":0_23_0" index="0" speed="19.44" length="2.41" shape="516.40,510.00 516.81,509.18 518.05,508.35"/>
    </edge>
    <edge id=":0_10" function="internal">
        <lane id=":0_10_0" index="0" speed="19.44" length="5.00" shape="514.95,501.95 515.14,503.31 515.73,504.27 516.69,504.86 518.05,505.05"/>
    </edge>
    <edge id=":0_11" function="internal">
        <lane id=":0_11_0" index="0" speed="19.44" length="16.10" shape="514.95,501.95 514.95,518.05"/>
        <lane id=":0_11_1" index="1" speed="19.44" length="16.10" shape="511.65,501.95 511.65,518.05"/>
    </edge>
    <edge id=":0_13" function="internal">
        <lane id=":0_13_0" index="0" speed="19.44" length="6.41" shape="511.65,501.95 511.04,506.19 509.95,508.02"/>
    </edge>
    <edge id=":0_14" function="internal">
        <lane id=":0_14_0" index="0" speed="19.44" length="2.41" shape="511.65,501.95 510.82,503.19 510.00,503.60"/>
    </edge>
    <edge id=":0_24" function="internal">
        <lane id=":0_24_0" index="0" speed="19.44" length="9.23" shape="509.95,508.02 509.22,509.23 506.19,511.04 501.95,511.65"/>
    </edge>
    <edge id=":0_25" function="internal">
        <lane id=":0_25_0" index="0" speed="19.44" length="2.41" shape="510.00,503.60 509.18,503.19 508.35,501.95"/>
    </edge>
    <edge id=":0_15" function="internal">
        <lane id=":0_15_0" index="0" speed="19.44" length="5.00" shape="501.95,505.05 503.31,504.86 504.27,504.28 504.86,503.31 505.05,501.95"/>
    </edge>
    <edge id=":0_16" function="internal">
        <lane id=":0_16_0" index="0" speed="19.44" length="16.10" shape="501.95,505.05 518.05,505.05"/>
        <lane id=":0_16_1" index="1" speed="19.44" length="16.10" shape="501.95,508.35 518.05,508.35"/>
    </edge>
    <edge id=":0_18" function="internal">
        <lane id=":0_18_0" index="0" speed="19.44" length="6.41" shape="501.95,508.35 506.19,508.96 508.02,510.05"/>
    </edge>
    <edge id=":0_19" function="internal">
        <lane id=":0_19_0" index="0" speed="19.44" length="2.41" shape="501.95,508.35 503.19,509.18 503.60,510.00"/>
    </edge>
    <edge id=":0_26" function="internal">
        <lane id=":0_26_0" index="0" speed="19.44" length="9.23" shape="508.02,510.05 509.23,510.78 511.04,513.81 511.65,518.05"/>
    </edge>
    <edge id=":0_27" function="internal">
        <lane id=":0_27_0" index="0" speed="19.44" length="2.41" shape="503.60,510.00 503.19,510.82 501.95,511.65"/>
    </edge>
    <edge id=":1_0" function="internal">
        <lane id=":1_0_0" index="0" speed="19.44" length="0.10" shape="10.00,514.95 10.00,514.95"/>
        <lane id=":1_0_1" index="1" speed="19.44" length="0.10" shape="10.00,511.65 10.00,511.65"/>
    </edge>
    <edge id=":1_2" function="internal">
        <lane id=":1_2_0" index="0" speed="19.44" length="2.41" shape="10.00,511.65 8.76,510.82 8.35,510.00"/>
    </edge>
    <edge id=":1_6" function="internal">
        <lane id=":1_6_0" index="0" speed="19.44" length="2.41" shape="8.35,510.00 8.76,509.18 10.00,508.35"/>
    </edge>
    <edge id=":1_3" function="internal">
        <lane id=":1_3_0" index="0" speed="19.44" length="0.10" shape="10.00,505.05 10.00,505.05"/>
        <lane id=":1_3_1" index="1" speed="19.44" length="0.10" shape="10.00,508.35 10.00,508.35"/>
    </edge>
    <edge id=":1_5" function="internal">
        <lane id=":1_5_0" index="0" speed="19.44" length="2.41" shape="10.00,508.35 11.24,509.18 11.65,510.00"/>
    </edge>
    <edge id=":1_7" function="internal">
        <lane id=":1_7_0" index="0" speed="19.44" length="2.41" shape="11.65,510.00 11.24,510.82 10.00,511.65"/>
    </edge>
    <edge id=":2_0" function="internal">
        <lane id=":2_0_0" index="0" speed="19.44" length="0.10" shape="1010.00,514.95 1010.00,514.95"/>
        <lane id=":2_0_1" index="1" speed="19.44" length="0.10" shape="1010.00,511.65 1010.00,511.65"/>
    </edge>
    <edge id=":2_2" function="internal">
        <lane id=":2_2_0" index="0" speed="19.44" length="2.41" shape="1010.00,511.65 1008.76,510.82 1008.35,510.00"/>
    </edge>
    <edge id=":2_6" function="internal">
        <lane id=":2_6_0" index="0" speed="19.44" length="2.41" shape="1008.35,510.00 1008.76,509.18 1010.00,508.35"/>
    </edge>
    <edge id=":2_3" function="internal">
        <lane id=":2_3_0" index="0" speed="19.44" length="0.10" shape="1010.00,505.05 1010.00,505.05"/>
        <lane id=":2_3_1" index="1" speed="19.44" length="0.10" shape="1010.00,508.35 1010.00,508.35"/>
    </edge>
    <edge id=":2_5" function="internal">
        <lane id=":2_5_0" index="0" speed="19.44" length="2.41" shape="1010.00,508.35 1011.24,509.18 1011.65,510.00"/>
    </edge>
    <edge id=":2_7" function="internal">
        <lane id=":2_7_0" index="0" speed="19.44" length="2.41" shape="1011.65,510.00 1011.24,510.82 1010.00,511.65"/>
    </edge>
    <edge id=":3_0" function="internal">
        <lane id=":3_0_0" index="0" speed="19.44" length="0.10" shape="505.05,10.00 505.05,10.00"/>
        <lane id=":3_0_1" index="1" speed="19.44" length="0.10" shape="508.35,10.00 508.35,10.00"/>
    </edge>
    <edge id=":3_2" function="internal">
        <lane id=":3_2_0" index="0" speed="19.44" length="2.41" shape="508.35,10.00 509.18,8.76 510.00,8.35"/>
    </edge>
    <edge id=":3_6" function="internal">
        <lane id=":3_6_0" index="0" speed="19.44" length="2.41" shape="510.00,8.35 510.82,8.76 511.65,10.00"/>
    </edge>
    <edge id=":3_3" function="internal">
        <lane id=":3_3_0" index="0" speed="19.44" length="0.10" shape="514.95,10.00 514.95,10.00"/>
        <lane id=":3_3_1" index="1" speed="19.44" length="0.10" shape="511.65,10.00 511.65,10.00"/>
    </edge>
    <edge id=":3_5" function="internal">
        <lane id=":3_5_0" index="0" speed="19.44" length="2.41" shape="511.65,10.00 510.82,11.24 510.00,11.65"/>
    </edge>
    <edge id=":3_7" function="internal">
        <lane id=":3_7_0" index="0" speed="19.44" length="2.41" shape="510.00,11.65 509.18,11.24 508.35,10.00"/>
    </edge>
    <edge id=":4_0" function="internal">
        <lane id=":4_0_0" index="0" speed="19.44" length="0.10" shape="505.05,1010.00 505.05,1010.00"/>
        <lane id=":4_0_1" index="1" speed="19.44" length="0.10" shape="508.35,1010.00 508.35,1010.00"/>
    </edge>
    <edge id=":4_2" function="internal">
        <lane id=":4_2_0" index="0" speed="19.44" length="2.41" shape="508.35,1010.00 509.18,1008.76 510.00,1008.35"/>
    </edge>
    <edge id=":4_6" function="internal">
        <lane id=":4_6_0" index="0" speed="19.44" length="2.41" shape="510.00,1008.35 510.82,1008.76 511.65,1010.00"/>
    </edge>
    <edge id=":4_3" function="internal">
        <lane id=":4_3_0" index="0" speed="19.44" length="0.10" shape="514.95,1010.00 514.95,1010.00"/>
        <lane id=":4_3_1" index="1" speed="19.44" length="0.10" shape="511.65,1010.00 511.65,1010.00"/>
    </edge>
    <edge id=":4_5" function="internal">
        <lane id=":4_5_0" index="0" speed="19.44" length="2.41" shape="511.65,1010.00 510.82,1011.24 510.00,1011.65"/>
    </edge>
    <edge id=":4_7" function="internal">
        <lane id=":4_7_0" index="0" speed="19.44" length="2.41" shape="510.00,1011.65 509.18,1011.24 508.35,1010.00"/>
    </edge>
    <edge id=":51_0" function="internal">
        <lane id=":51_0_0" index="0" speed="19.44" length="4.82" shape="0.00,511.65 -1.24,510.82 -1.65,510.00 -1.24,509.18 0.00,508.35"/>
    </edge>
    <edge id=":52_0" function="internal">
        <lane id=":52_0_0" index="0" speed="19.44" length="4.82" shape="1020.00,508.35 1021.24,509.18 1021.65,510.00 1021.24,510.82 1020.00,511.65"/>
    </edge>
    <edge id=":53_0" function="internal">
        <lane id=":53_0_0" index="0" speed="19.44" length="4.82" shape="508.35,0.00 509.18,-1.24 510.00,-1.65 510.82,-1.24 511.65,0.00"/>
    </edge>
    <edge id=":54_0" function="internal">
        <lane id=":54_0_0" index="0" speed="19.44" length="4.82" shape="511.65,1020.00 510.82,1021.24 510.00,1021.65 509.18,1021.24 508.35,1020.00"/>
    </edge>

    <edge id="1i" from="1" to="0" priority="78">
        <lane id="1i_0" index="0" speed="19.44" length="491.95" shape="10.00,505.05 501.95,505.05"/>
        <lane id="1i_1" index="1" speed="19.44" length="491.95" shape="10.00,508.35 501.95,508.35"/>
    </edge>
    <edge id="1o" from="0" to="1" priority="46">
        <lane id="1o_0" index="0" speed="19.44" length="491.95" shape="501.95,514.95 10.00,514.95"/>
        <lane id="1o_1" index="1" speed="19.44" length="491.95" shape="501.95,511.65 10.00,511.65"/>
    </edge>
    <edge id="2i" from="2" to="0" priority="78">
        <lane id="2i_0" index="0" speed="19.44" length="491.95" shape="1010.00,514.95 518.05,514.95"/>
        <lane id="2i_1" index="1" speed="19.44" length="491.95" shape="1010.00,511.65 518.05,511.65"/>
    </edge>
    <edge id="2o" from="0" to="2" priority="46">
        <lane id="2o_0" index="0" speed="19.44" length="491.95" shape="518.05,505.05 1010.00,505.05"/>
        <lane id="2o_1" index="1" speed="19.44" length="491.95" shape="518.05,508.35 1010.00,508.35"/>
    </edge>
    <edge id="3i" from="3" to="0" priority="78">
        <lane id="3i_0" index="0" speed="19.44" length="491.95" shape="514.95,10.00 514.95,501.95"/>
        <lane id="3i_1" index="1" speed="19.44" length="491.95" shape="511.65,10.00 511.65,501.95"/>
    </edge>
    <edge id="3o" from="0" to="3" priority="46">
        <lane id="3o_0" index="0" speed="19.44" length="491.95" shape="505.05,501.95 505.05,10.00"/>
        <lane id="3o_1" index="1" speed="19.44" length="491.95" shape="508.35,501.95 508.35,10.00"/>
    </edge>
    <edge id="4i" from="4" to="0" priority="78">
        <lane id="4i_0" index="0" speed="19.44" length="491.95" shape="505.05,1010.00 505.05,518.05"/>
        <lane id="4i_1" index="1" speed="19.44" length="491.95" shape="508.35,1010.00 508.35,518.05"/>
    </edge>
    <edge id="4o" from="0" to="4" priority="46">
        <lane id="4o_0" index="0" speed="19.44" length="491.95" shape="514.95,518.05 514.95,1010.00"/>
        <lane id="4o_1" index="1" speed="19.44" length="491.95" shape="511.65,518.05 511.65,1010.00"/>
    </edge>
    <edge id="51i" from="1" to="51" priority="78">
        <lane id="51i_0" index="0" speed="19.44" length="10.00" shape="10.00,514.95 0.00,514.95"/>
        <lane id="51i_1" index="1" speed="19.44" length="10.00" shape="10.00,511.65 0.00,511.65"/>
    </edge>
    <edge id="51o" from="51" to="1" priority="46">
        <lane id="51o_0" index="0" speed="19.44" length="10.00" shape="0.00,505.05 10.00,505.05"/>
        <lane id="51o_1" index="1" speed="19.44" length="10.00" shape="0.00,508.35 10.00,508.35"/>
    </edge>
    <edge id="52i" from="2" to="52" priority="78">
        <lane id="52i_0" index="0" speed="19.44" length="10.00" shape="1010.00,505.05 1020.00,505.05"/>
        <lane id="52i_1" index="1" speed="19.44" length="10.00" shape="1010.00,508.35 1020.00,508.35"/>
    </edge>
    <edge id="52o" from="52" to="2" priority="46">
        <lane id="52o_0" index="0" speed="19.44" length="10.00" shape="1020.00,514.95 1010.00,514.95"/>
        <lane id="52o_1" index="1" speed="19.44" length="10.00" shape="1020.00,511.65 1010.00,511.65"/>
    </edge>
    <edge id="53i" from="3" to="53" priority="78">
        <lane id="53i_0" index="0" speed="19.44" length="10.00" shape="505.05,10.00 505.05,0.00"/>
        <lane id="53i_1" index="1" speed="19.44" length="10.00" shape="508.35,10.00 508.35,0.00"/>
    </edge>
    <edge id="53o" from="53" to="3" priority="46">
        <lane id="53o_0" index="0" speed="19.44" length="10.00" shape="514.95,0.00 514.95,10.00"/>
        <lane id="53o_1" index="1" speed="19.44" length="10.00" shape="511.65,0.00 511.65,10.00"/>
    </edge>
    <edge id="54i" from="4" to="54" priority="78">
        <lane id="54i_0" index="0" speed="19.44" length="10.00" shape="514.95,1010.00 514.95,1020.00"/>
        <lane id="54i_1" index="1" speed="19.44" length="10.00" shape="511.65,1010.00 511.65,1020.00"/>
    </edge>
    <edge id="54o" from="54" to="4" priority="46">
        <lane id="54o_0" index="0" speed="19.44" length="10.00" shape="505.05,1020.00 505.05,1010.00"/>
        <lane id="54o_1" index="1" speed="19.44" length="10.00" shape="508.35,1020.00 508.35,1010.00"/>
    </edge>

    <tlLogic id="0" type="static" programID="0" offset="0">
        <phase duration="30" state="GGGGGrrrrrGGGGGrrrrr"/>
        <phase duration="6" state="yyyyyrrrrryyyyyrrrrr"/>
        <phase duration="30" state="rrrrrGGGGGrrrrrGGGGG"/>
        <phase duration="6" state="rrrrryyyyyrrrrryyyyy"/>
    </tlLogic>

    <junction id="0" type="traffic_light" x="510.00" y="510.00" incLanes="4i_0 4i_1 2i_0 2i_1 3i_0 3i_1 1i_0 1i_1" intLanes=":0_0_0 :0_1_0 :0_1_1 :0_20_0 :0_21_0 :0_5_0 :0_6_0 :0_6_1 :0_22_0 :0_23_0 :0_10_0 :0_11_0 :0_11_1 :0_24_0 :0_25_0 :0_15_0 :0_16_0 :0_16_1 :0_26_0 :0_27_0" shape="503.45,518.05 516.55,518.05 518.05,516.55 518.05,503.45 516.55,501.95 503.45,501.95 501.95,503.45 501.95,516.55">
        <request index="0" response="00000000000000000000" foes="10000010000011000000" cont="0"/>
        <request index="1" response="00000000000000000000" foes="01111110000111000000" cont="0"/>
        <request index="2" response="00000000000000000000" foes="01111110000111000000" cont="0"/>
        <request index="3" response="00000001110000000000" foes="01110001111111000000" cont="1"/>
        <request index="4" response="01000001100000100000" foes="01000001100000100000" cont="1"/>
        <request index="5" response="00000001100000000000" foes="01000001100000010000" cont="0"/>
        <request index="6" response="00000011100000001111" foes="11000011100000001111" cont="0"/>
        <request index="7" response="00000011100000001111" foes="11000011100000001111" cont="0"/>
        <request index="8" response="00111011100000001110" foes="00111111100000001110" cont="1"/>
        <request index="9" response="00110000010000001000" foes="00110000010000001000" cont="1"/>
        <request index="10" response="00000000000000000000" foes="00110000001000001000" cont="0"/>
        <request index="11" response="00000000000000000000" foes="01110000000111111000" cont="0"/>
        <request index="12" response="00000000000000000000" foes="01110000000111111000" cont="0"/>
        <request index="13" response="00000000000000000111" foes="11110000000111000111" cont="1"/>
        <request index="14" response="00001000000100000110" foes="00001000000100000110" cont="1"/>
        <request index="15" response="00000000000000000110" foes="00000100000100000110" cont="0"/>
        <request index="16" response="00000011110000001110" foes="00000011111100001110" cont="0"/>
        <request index="17" response="00000011110000001110" foes="00000011111100001110" cont="0"/>
        <request index="18" response="00000011100011101110" foes="00000011100011111110" cont="1"/>
        <request index="19" response="00000010000011000001" foes="00000010000011000001" cont="1"/>
    </junction>
    <junction id="1" type="priority" x="10.00" y="510.00" incLanes="1o_0 1o_1 51o_0 51o_1" intLanes=":1_0_0 :1_0_1 :1_6_0 :1_3_0 :1_3_1 :1_7_0" shape="10.00,516.55 10.00,503.45 10.00,516.55">
        <request index="0" response="000000" foes="100000" cont="0"/>
        <request index="1" response="000000" foes="100000" cont="0"/>
        <request index="2" response="011000" foes="011000" cont="1"/>
        <request index="3" response="000000" foes="000100" cont="0"/>
        <request index="4" response="000000" foes="000100" cont="0"/>
        <request index="5" response="000011" foes="000011" cont="1"/>
    </junction>
    <junction id="2" type="priority" x="1010.00" y="510.00" incLanes="52o_0 52o_1 2o_0 2o_1" intLanes=":2_0_0 :2_0_1 :2_6_0 :2_3_0 :2_3_1 :2_7_0" shape="1010.00,516.55 1010.00,503.45 1010.00,516.55">
        <request index="0" response="000000" foes="100000" cont="0"/>
        <request index="1" response="000000" foes="100000" cont="0"/>
        <request index="2" response="011000" foes="011000" cont="1"/>
        <request index="3" response="000000" foes="000100" cont="0"/>
        <request index="4" response="000000" foes="000100" cont="0"/>
        <request index="5" response="000011" foes="000011" cont="1"/>
    </junction>
    <junction id="3" type="priority" x="510.00" y="10.00" incLanes="3o_0 3o_1 53o_0 53o_1" intLanes=":3_0_0 :3_0_1 :3_6_0 :3_3_0 :3_3_1 :3_7_0" shape="503.45,10.00 516.55,10.00 503.45,10.00">
        <request index="0" response="000000" foes="100000" cont="0"/>
        <request index="1" response="000000" foes="100000" cont="0"/>
        <request index="2" response="011000" foes="011000" cont="1"/>
        <request index="3" response="000000" foes="000100" cont="0"/>
        <request index="4" response="000000" foes="000100" cont="0"/>
        <request index="5" response="000011" foes="000011" cont="1"/>
    </junction>
    <junction id="4" type="priority" x="510.00" y="1010.00" incLanes="54o_0 54o_1 4o_0 4o_1" intLanes=":4_0_0 :4_0_1 :4_6_0 :4_3_0 :4_3_1 :4_7_0" shape="503.45,1010.00 516.55,1010.00 503.45,1010.00">
        <request index="0" response="000000" foes="100000" cont="0"/>
        <request index="1" response="000000" foes="100000" cont="0"/>
        <request index="2" response="011000" foes="011000" cont="1"/>
        <request index="3" response="000000" foes="000100" cont="0"/>
        <request index="4" response="000000" foes="000100" cont="0"/>
        <request index="5" response="000011" foes="000011" cont="1"/>
    </junction>
    <junction id="51" type="priority" x="0.00" y="510.00" incLanes="51i_0 51i_1" intLanes=":51_0_0" shape="0.00,509.95 0.00,516.55 0.00,510.05">
        <request index="0" response="0" foes="0" cont="0"/>
    </junction>
    <junction id="52" type="priority" x="1020.00" y="510.00" incLanes="52i_0 52i_1" intLanes=":52_0_0" shape="1020.00,510.05 1020.00,503.45 1020.00,509.95">
        <request index="0" response="0" foes="0" cont="0"/>
    </junction>
    <junction id="53" type="priority" x="510.00" y="0.00" incLanes="53i_0 53i_1" intLanes=":53_0_0" shape="510.05,0.00 503.45,0.00 509.95,0.00">
        <request index="0" response="0" foes="0" cont="0"/>
    </junction>
    <junction id="54" type="priority" x="510.00" y="1020.00" incLanes="54i_0 54i_1" intLanes=":54_0_0" shape="509.95,1020.00 516.55,1020.00 510.05,1020.00">
        <request index="0" response="0" foes="0" cont="0"/>
    </junction>

    <junction id=":0_20_0" type="internal" x="510.05" y="511.98" incLanes=":0_3_0 3i_0 3i_1" intLanes=":0_6_0 :0_6_1 :0_8_0 :0_9_0 :0_10_0 :0_11_0 :0_11_1 :0_16_0 :0_16_1 :0_18_0"/>
    <junction id=":0_21_0" type="internal" x="510.00" y="516.40" incLanes=":0_4_0 1i_1 2i_0 3i_0 3i_1" intLanes=":0_5_0 :0_11_0 :0_11_1 :0_18_0"/>
    <junction id=":0_22_0" type="internal" x="511.98" y="509.95" incLanes=":0_8_0 1i_0 1i_1" intLanes=":0_1_0 :0_1_1 :0_3_0 :0_11_0 :0_11_1 :0_13_0 :0_14_0 :0_15_0 :0_16_0 :0_16_1"/>
    <junction id=":0_23_0" type="internal" x="516.40" y="510.00" incLanes=":0_9_0 1i_0 1i_1 3i_0 4i_1" intLanes=":0_3_0 :0_10_0 :0_16_0 :0_16_1"/>
    <junction id=":0_24_0" type="internal" x="509.95" y="508.02" incLanes=":0_13_0 4i_0 4i_1" intLanes=":0_0_0 :0_1_0 :0_1_1 :0_6_0 :0_6_1 :0_8_0 :0_16_0 :0_16_1 :0_18_0 :0_19_0"/>
    <junction id=":0_25_0" type="internal" x="510.00" y="503.60" incLanes=":0_14_0 1i_0 2i_1 4i_0 4i_1" intLanes=":0_1_0 :0_1_1 :0_8_0 :0_15_0"/>
    <junction id=":0_26_0" type="internal" x="508.02" y="510.05" incLanes=":0_18_0 2i_0 2i_1" intLanes=":0_1_0 :0_1_1 :0_3_0 :0_4_0 :0_5_0 :0_6_0 :0_6_1 :0_11_0 :0_11_1 :0_13_0"/>
    <junction id=":0_27_0" type="internal" x="503.60" y="510.00" incLanes=":0_19_0 2i_0 2i_1 3i_1 4i_0" intLanes=":0_0_0 :0_6_0 :0_6_1 :0_13_0"/>
    <junction id=":1_6_0" type="internal" x="8.35" y="510.00" incLanes=":1_2_0 51o_0 51o_1" intLanes=":1_3_0 :1_3_1"/>
    <junction id=":1_7_0" type="internal" x="11.65" y="510.00" incLanes=":1_5_0 1o_0 1o_1" intLanes=":1_0_0 :1_0_1"/>
    <junction id=":2_6_0" type="internal" x="1008.35" y="510.00" incLanes=":2_2_0 2o_0 2o_1" intLanes=":2_3_0 :2_3_1"/>
    <junction id=":2_7_0" type="internal" x="1011.65" y="510.00" incLanes=":2_5_0 52o_0 52o_1" intLanes=":2_0_0 :2_0_1"/>
    <junction id=":3_6_0" type="internal" x="510.00" y="8.35" incLanes=":3_2_0 53o_0 53o_1" intLanes=":3_3_0 :3_3_1"/>
    <junction id=":3_7_0" type="internal" x="510.00" y="11.65" incLanes=":3_5_0 3o_0 3o_1" intLanes=":3_0_0 :3_0_1"/>
    <junction id=":4_6_0" type="internal" x="510.00" y="1008.35" incLanes=":4_2_0 4o_0 4o_1" intLanes=":4_3_0 :4_3_1"/>
    <junction id=":4_7_0" type="internal" x="510.00" y="1011.65" incLanes=":4_5_0 54o_0 54o_1" intLanes=":4_0_0 :4_0_1"/>

    <connection from="1i" to="3o" fromLane="0" toLane="0" via=":0_15_0" tl="0" linkIndex="15" dir="r" state="o"/>
    <connection from="1i" to="2o" fromLane="0" toLane="0" via=":0_16_0" tl="0" linkIndex="16" dir="s" state="o"/>
    <connection from="1i" to="2o" fromLane="1" toLane="1" via=":0_16_1" tl="0" linkIndex="17" dir="s" state="o"/>
    <connection from="1i" to="4o" fromLane="1" toLane="1" via=":0_18_0" tl="0" linkIndex="18" dir="l" state="o"/>
    <connection from="1i" to="1o" fromLane="1" toLane="1" via=":0_19_0" tl="0" linkIndex="19" dir="t" state="o"/>
    <connection from="1o" to="51i" fromLane="0" toLane="0" via=":1_0_0" dir="s" state="M"/>
    <connection from="1o" to="51i" fromLane="1" toLane="1" via=":1_0_1" dir="s" state="M"/>
    <connection from="1o" to="1i" fromLane="1" toLane="1" via=":1_2_0" dir="t" state="m"/>
    <connection from="2i" to="4o" fromLane="0" toLane="0" via=":0_5_0" tl="0" linkIndex="5" dir="r" state="o"/>
    <connection from="2i" to="1o" fromLane="0" toLane="0" via=":0_6_0" tl="0" linkIndex="6" dir="s" state="o"/>
    <connection from="2i" to="1o" fromLane="1" toLane="1" via=":0_6_1" tl="0" linkIndex="7" dir="s" state="o"/>
    <connection from="2i" to="3o" fromLane="1" toLane="1" via=":0_8_0" tl="0" linkIndex="8" dir="l" state="o"/>
    <connection from="2i" to="2o" fromLane="1" toLane="1" via=":0_9_0" tl="0" linkIndex="9" dir="t" state="o"/>
    <connection from="2o" to="52i" fromLane="0" toLane="0" via=":2_3_0" dir="s" state="M"/>
    <connection from="2o" to="52i" fromLane="1" toLane="1" via=":2_3_1" dir="s" state="M"/>
    <connection from="2o" to="2i" fromLane="1" toLane="1" via=":2_5_0" dir="t" state="m"/>
    <connection from="3i" to="2o" fromLane="0" toLane="0" via=":0_10_0" tl="0" linkIndex="10" dir="r" state="o"/>
    <connection from="3i" to="4o" fromLane="0" toLane="0" via=":0_11_0" tl="0" linkIndex="11" dir="s" state="o"/>
    <connection from="3i" to="4o" fromLane="1" toLane="1" via=":0_11_1" tl="0" linkIndex="12" dir="s" state="o"/>
    <connection from="3i" to="1o" fromLane="1" toLane="1" via=":0_13_0" tl="0" linkIndex="13" dir="l" state="o"/>
    <connection from="3i" to="3o" fromLane="1" toLane="1" via=":0_14_0" tl="0" linkIndex="14" dir="t" state="o"/>
    <connection from="3o" to="53i" fromLane="0" toLane="0" via=":3_0_0" dir="s" state="M"/>
    <connection from="3o" to="53i" fromLane="1" toLane="1" via=":3_0_1" dir="s" state="M"/>
    <connection from="3o" to="3i" fromLane="1" toLane="1" via=":3_2_0" dir="t" state="m"/>
    <connection from="4i" to="1o" fromLane="0" toLane="0" via=":0_0_0" tl="0" linkIndex="0" dir="r" state="o"/>
    <connection from="4i" to="3o" fromLane="0" toLane="0" via=":0_1_0" tl="0" linkIndex="1" dir="s" state="o"/>
    <connection from="4i" to="3o" fromLane="1" toLane="1" via=":0_1_1" tl="0" linkIndex="2" dir="s" state="o"/>
    <connection from="4i" to="2o" fromLane="1" toLane="1" via=":0_3_0" tl="0" linkIndex="3" dir="l" state="o"/>
    <connection from="4i" to="4o" fromLane="1" toLane="1" via=":0_4_0" tl="0" linkIndex="4" dir="t" state="o"/>
    <connection from="4o" to="54i" fromLane="0" toLane="0" via=":4_3_0" dir="s" state="M"/>
    <connection from="4o" to="54i" fromLane="1" toLane="1" via=":4_3_1" dir="s" state="M"/>
    <connection from="4o" to="4i" fromLane="1" toLane="1" via=":4_5_0" dir="t" state="m"/>
    <connection from="51i" to="51o" fromLane="1" toLane="1" via=":51_0_0" dir="t" state="M"/>
    <connection from="51o" to="1i" fromLane="0" toLane="0" via=":1_3_0" dir="s" state="M"/>
    <connection from="51o" to="1i" fromLane="1" toLane="1" via=":1_3_1" dir="s" state="M"/>
    <connection from="51o" to="51i" fromLane="1" toLane="1" via=":1_5_0" dir="t" state="m"/>
    <connection from="52i" to="52o" fromLane="1" toLane="1" via=":52_0_0" dir="t" state="M"/>
    <connection from="52o" to="2i" fromLane="0" toLane="0" via=":2_0_0" dir="s" state="M"/>
    <connection from="52o" to="2i" fromLane="1" toLane="1" via=":2_0_1" dir="s" state="M"/>
    <connection from="52o" to="52i" fromLane="1" toLane="1" via=":2_2_0" dir="t" state="m"/>
    <connection from="53i" to="53o" fromLane="1" toLane="1" via=":53_0_0" dir="t" state="M"/>
    <connection from="53o" to="3i" fromLane="0" toLane="0" via=":3_3_0" dir="s" state="M"/>
    <connection from="53o" to="3i" fromLane="1" toLane="1" via=":3_3_1" dir="s" state="M"/>
    <connection from="53o" to="53i" fromLane="1" toLane="1" via=":3_5_0" dir="t" state="m"/>
    <connection from="54i" to="54o" fromLane="1" toLane="1" via=":54_0_0" dir="t" state="M"/>
    <connection from="54o" to="4i" fromLane="0" toLane="0" via=":4_0_0" dir="s" state="M"/>
    <connection from="54o" to="4i" fromLane="1" toLane="1" via=":4_0_1" dir="s" state="M"/>
    <connection from="54o" to="54i" fromLane="1" toLane="1" via=":4_2_0" dir="t" state="m"/>

    <connection from=":0_0" to="1o" fromLane="0" toLane="0" dir="r" state="M"/>
    <connection from=":0_1" to="3o" fromLane="0" toLane="0" dir="s" state="M"/>
    <connection from=":0_1" to="3o" fromLane="1" toLane="1" dir="s" state="M"/>
    <connection from=":0_3" to="2o" fromLane="0" toLane="1" via=":0_20_0" dir="l" state="m"/>
    <connection from=":0_20" to="2o" fromLane="0" toLane="1" dir="l" state="M"/>
    <connection from=":0_4" to="4o" fromLane="0" toLane="1" via=":0_21_0" dir="t" state="m"/>
    <connection from=":0_21" to="4o" fromLane="0" toLane="1" dir="t" state="M"/>
    <connection from=":0_5" to="4o" fromLane="0" toLane="0" dir="r" state="M"/>
    <connection from=":0_6" to="1o" fromLane="0" toLane="0" dir="s" state="M"/>
    <connection from=":0_6" to="1o" fromLane="1" toLane="1" dir="s" state="M"/>
    <connection from=":0_8" to="3o" fromLane="0" toLane="1" via=":0_22_0" dir="l" state="m"/>
    <connection from=":0_22" to="3o" fromLane="0" toLane="1" dir="l" state="M"/>
    <connection from=":0_9" to="2o" fromLane="0" toLane="1" via=":0_23_0" dir="t" state="m"/>
    <connection from=":0_23" to="2o" fromLane="0" toLane="1" dir="t" state="M"/>
    <connection from=":0_10" to="2o" fromLane="0" toLane="0" dir="r" state="M"/>
    <connection from=":0_11" to="4o" fromLane="0" toLane="0" dir="s" state="M"/>
    <connection from=":0_11" to="4o" fromLane="1" toLane="1" dir="s" state="M"/>